42
2VZC
C      -1.74200000     -2.09000000     -4.73700000
C      -0.81300000     -1.93200000     -3.55800000
O      -0.97900000     -2.45700000     -2.48400000
N       0.26600000     -1.07300000     -3.79800000
H      -1.18900000     -2.25300000     -5.66100000
H      -2.34900000     -2.97500000     -4.54600000
H       0.61600000     -1.20500000     -4.75700000
H       0.99900000     -1.26300000     -3.12600000
H      -2.38000000     -1.21100000     -4.83200000
N       1.81600000      2.11500000      3.14500000
C       1.03500000      2.83500000      2.16100000
C       0.54900000      1.90900000      1.05200000
C       1.69400000      1.58100000      0.10100000
S       1.23800000      0.58100000     -1.34200000
C      -0.11700000      3.53300000      2.87100000
O      -0.29800000      3.18800000      4.14400000
O      -0.78000000      4.38900000      2.35500000
C       0.67900000      1.83000000     -2.53400000
C      -0.78000000      2.17900000     -2.42900000
O      -1.01600000      3.06800000     -1.32300000
C      -1.32400000      2.98100000     -3.60300000
O      -1.46100000      2.19200000     -4.75600000
C      -2.62600000      3.48700000     -2.98200000
O      -3.49500000      2.39200000     -2.80500000
C      -2.13200000      3.88300000     -1.58900000
H       2.66600000      2.57500000      3.46800000
H       0.36200000      2.46400000      4.30600000
H       1.59500000      3.64400000      1.68500000
H      -0.23200000      2.43300000      0.50500000
H       0.10200000      1.00700000      1.47600000
H       2.47900000      1.00600000      0.59500000
H       2.16000000      2.50400000     -0.25200000
H       0.82200000      1.36600000     -3.51000000
H       1.30000000      2.72400000     -2.45800000
H      -1.36400000      1.25800000     -2.31400000
H      -0.65900000      3.83800000     -3.77500000
H      -3.10400000      4.31300000     -3.50400000
H      -2.91900000      3.73300000     -0.84500000
H       2.06600000      1.18000000      2.84300000
H      -1.30500000      2.76100000     -5.52399999
H      -4.31200000      2.52600000     -3.31700000
H      -1.82800000      4.93000000     -1.59300000
