35
4HYH
C      13.40400001     -6.65200001      3.05400000
C      12.93899999     -7.41000001      1.81200000
O      12.17699999     -6.90199999      1.01200000
H      14.19000000     -7.23800001      3.55900000
H      12.55800001     -6.54900001      3.73400000
H      13.78600002     -5.66999999      2.77500000
N      13.29800000     -8.53900001      1.67700000
C      12.99199999     -9.40400001      0.53000000
H      13.89400001     -8.93599997      2.38500000
H      12.93700001     -8.77799999     -0.36100000
H      12.03100000     -9.89300003      0.69000000
H      13.78700001    -10.14000000      0.40800000
C      10.55300000     -4.40200000     -2.18300000
N      10.21900002     -5.11300000     -3.32200000
C      10.46599999     -6.37300000     -3.13000000
S      11.11100002     -6.78900002     -1.56600000
C      11.03800002     -5.12900000     -1.14200000
N      10.15999999     -7.34000002     -4.07300000
C      10.54999999     -8.67099999     -3.93900000
C       9.91000000     -9.39499998     -5.05200000
C       9.19700002     -8.49700001     -5.82299999
C       9.28200001     -7.11500001     -5.21800000
C       9.96600002    -10.75399998     -5.31099997
C       9.25200000    -11.21999999     -6.41400002
C       8.53900001    -10.32000000     -7.22200001
C       8.51099998     -8.96500000     -6.93600000
O      11.25899998     -9.08499998     -3.05800000
H      11.41100000     -4.80400000     -0.18200000
H       9.69299999     -6.36100001     -5.89500000
H       8.29999998     -6.76799999     -4.87500000
H      10.51599999    -11.40900002     -4.65000000
H       7.96999999    -10.71800000     -8.05400000
H       7.93500000     -8.29599998     -7.57100001
H       9.24800000    -12.27500001     -6.64699997
H      10.42300000     -3.33000000     -2.15800000
